16
XYZ file generated by Avogadro.
C     -0.09690    0.70470   -0.35980
C      0.70750   -0.18230   -0.97700
F      3.74840    3.00520   -0.93360
H      6.18860    1.55390    2.07000
S      3.80220    1.08460    1.56200
C      5.37080    1.76650    1.39240
S      1.05330    1.65960    0.48870
C      5.19700    2.55040    0.31080
C      2.02450    0.19340   -0.55930
H     -1.16400    0.88650   -0.32390
H      5.92480    3.20670   -0.16030
C      1.97400    1.08020    0.15120
C      3.83310    2.32810   -0.06390
F      2.63120   -0.56110   -1.09280
C      3.35230    1.57010    0.63450
H      0.41920   -0.99320   -1.64160
