12

C          1.38230       -0.19340        0.00540
C          0.88080        1.10740        0.01440
C         -0.49650        1.32360        0.01010
C         -1.37240        0.23900       -0.00450
C         -0.87090       -1.06190       -0.01400
C          0.50640       -1.27800       -0.00840
H          2.45640       -0.36200        0.00930
H          1.56380        1.95330        0.02490
H         -0.88760        2.33810        0.01790
H         -2.44650        0.40760       -0.00840
H         -1.55390       -1.90770       -0.02570
H          0.89750       -2.29250       -0.01510
