 xtb: 6.5.0 (746241f)
          07192220413D

 12  0  0     0  0            999 V2000
    1.3728   -0.1919    0.0054 C   0  0  0  0  0  0  0  0  0  0  0  0
    0.8748    1.1000    0.0146 C   0  0  0  0  0  0  0  0  0  0  0  0
   -0.4931    1.3147    0.0097 C   0  0  0  0  0  0  0  0  0  0  0  0
   -1.3629    0.2375   -0.0044 C   0  0  0  0  0  0  0  0  0  0  0  0
   -0.8649   -1.0544   -0.0136 C   0  0  0  0  0  0  0  0  0  0  0  0
    0.5030   -1.2691   -0.0087 C   0  0  0  0  0  0  0  0  0  0  0  0
    2.4402   -0.3595    0.0093 H   0  0  0  0  0  0  0  0  0  0  0  0
    1.5535    1.9406    0.0256 H   0  0  0  0  0  0  0  0  0  0  0  0
   -0.8817    2.3228    0.0169 H   0  0  0  0  0  0  0  0  0  0  0  0
   -2.4303    0.4050   -0.0083 H   0  0  0  0  0  0  0  0  0  0  0  0
   -1.5436   -1.8950   -0.0246 H   0  0  0  0  0  0  0  0  0  0  0  0
    0.8916   -2.2772   -0.0159 H   0  0  0  0  0  0  0  0  0  0  0  0
M  END
