 xtb: 6.5.0 (746241f)
          07142215233D

  8  0  0     0  0            999 V2000
   -0.9202    0.6955   -0.0272 C   0  0  0  0  0  0  0  0  0  0  0  0
    0.5632    1.0302   -0.0043 C   0  0  0  0  0  0  0  0  0  0  0  0
    0.8188    1.7714   -0.7680 H   0  0  0  0  0  0  0  0  0  0  0  0
    0.8800    1.3806    0.9830 H   0  0  0  0  0  0  0  0  0  0  0  0
    1.2831   -0.1034   -0.2825 F   0  0  0  0  0  0  0  0  0  0  0  0
   -1.8543    2.1632    0.3330 Cl  0  0  0  0  0  0  0  0  0  0  0  0
   -1.2219    0.3370   -1.0119 H   0  0  0  0  0  0  0  0  0  0  0  0
   -1.1611   -0.0517    0.7296 H   0  0  0  0  0  0  0  0  0  0  0  0
M  END
