23

C          1.12860        5.48440       -1.46260
C          1.88110        5.99310       -0.46720
S          2.32760        4.56780        0.38460
C          1.68130        3.90130       -0.25820
C          1.54710        2.51270        0.35650
C          1.82940        1.85750        1.21210
C          1.23330        0.56470        1.08180
C          0.62910        0.49800        0.14830
C         -0.25930       -0.39500       -0.71060
C         -0.62550        0.05450       -1.68080
C         -1.16990       -1.01370       -2.45640
C         -1.06840       -2.09710       -1.66180
S         -0.38540       -1.41350       -0.23950
S          1.06670        1.52250        0.18080
C          1.10930        4.07800       -1.21690
H          0.65390        6.01240       -2.28320
H          2.22480        6.98180       -0.18860
H          2.46480        2.10800        2.07300
H          1.39500       -0.21650        1.83780
H         -0.60600        1.06200       -2.08700
H         -1.58740       -0.95020       -3.45600
H         -1.34030       -3.14230       -1.74480
H          0.57870        3.41770       -1.89740
