 xtb: 6.5.0 (746241f)
          07202215453D

  9  0  0     0  0            999 V2000
    1.3761   -0.7008    0.0010 C   0  0  0  0  0  0  0  0  0  0  0  0
    1.3707    0.7141    0.0010 C   0  0  0  0  0  0  0  0  0  0  0  0
    0.1158    1.2274   -0.0055 C   0  0  0  0  0  0  0  0  0  0  0  0
   -1.0847   -0.0027   -0.0162 S   0  0  0  0  0  0  0  0  0  0  0  0
    0.1251   -1.2235   -0.0056 C   0  0  0  0  0  0  0  0  0  0  0  0
    2.2721   -1.2950    0.0057 H   0  0  0  0  0  0  0  0  0  0  0  0
    2.2622    1.3151    0.0057 H   0  0  0  0  0  0  0  0  0  0  0  0
   -0.1866    2.2555   -0.0070 H   0  0  0  0  0  0  0  0  0  0  0  0
   -0.1694   -2.2539   -0.0071 H   0  0  0  0  0  0  0  0  0  0  0  0
M  END
