8

C         -0.59890        0.78840       -0.03660
C          0.76980        1.10430        0.55020
H          1.56180        0.71740       -0.12500
H          0.89430        2.20290        0.65540
F          0.90640        0.50690        1.79050
Cl        -1.89110        1.41700        1.01810
H         -0.69230        1.25990       -1.03760
H         -0.71800       -0.31030       -0.14420
