 xtb: 6.5.0 (746241f)
          07202214343D

 18  0  0     0  0            999 V2000
   -1.2368   -1.3910   -0.0048 C   0  0  0  0  0  0  0  0  0  0  0  0
   -0.0028   -0.7153   -0.0042 C   0  0  0  0  0  0  0  0  0  0  0  0
    1.2307   -1.3921   -0.0038 C   0  0  0  0  0  0  0  0  0  0  0  0
    2.4396   -0.6902   -0.0032 C   0  0  0  0  0  0  0  0  0  0  0  0
    2.4402    0.6869   -0.0029 C   0  0  0  0  0  0  0  0  0  0  0  0
    1.2319    1.3898   -0.0032 C   0  0  0  0  0  0  0  0  0  0  0  0
   -0.0022    0.7141   -0.0038 C   0  0  0  0  0  0  0  0  0  0  0  0
   -1.2356    1.3909   -0.0042 C   0  0  0  0  0  0  0  0  0  0  0  0
   -2.4446    0.6890   -0.0048 C   0  0  0  0  0  0  0  0  0  0  0  0
   -2.4452   -0.6881   -0.0051 C   0  0  0  0  0  0  0  0  0  0  0  0
   -1.2437   -2.4767   -0.0050 H   0  0  0  0  0  0  0  0  0  0  0  0
    1.2366   -2.4777   -0.0041 H   0  0  0  0  0  0  0  0  0  0  0  0
    3.3783   -1.2391   -0.0030 H   0  0  0  0  0  0  0  0  0  0  0  0
    3.3793    1.2350   -0.0024 H   0  0  0  0  0  0  0  0  0  0  0  0
    1.2387    2.4755   -0.0029 H   0  0  0  0  0  0  0  0  0  0  0  0
   -1.2415    2.4766   -0.0039 H   0  0  0  0  0  0  0  0  0  0  0  0
   -3.3832    1.2379   -0.0051 H   0  0  0  0  0  0  0  0  0  0  0  0
   -3.3843   -1.2362   -0.0056 H   0  0  0  0  0  0  0  0  0  0  0  0
M  CHG  1   1  -1
M  END
