37

C         -0.46457        9.30047        3.12720
C          0.44013       10.13440        2.57910
S          0.75873        9.34577        1.08570
C          0.05043        8.48777        1.28270
C          0.04643        7.47987        0.13680
C          0.49633        7.24577       -0.85570
C          0.06803        6.03687       -1.48440
C         -0.66287        5.61857       -0.76950
C         -1.50447        4.37557       -0.77850
C         -2.26867        3.85427       -0.17390
C         -2.65417        2.64867       -0.84370
C         -2.07747        2.55617       -1.78180
C         -1.89997        1.63207       -2.95160
C         -1.23897        1.65817       -3.83600
C         -1.57487        0.46177       -4.54010
C         -2.36867       -0.17773       -4.08920
C         -3.16957       -1.46263       -4.28030
C         -3.94847       -1.69713       -3.49470
C         -4.60147       -2.91293       -3.86330
C         -4.00247       -3.28383       -5.01100
S         -2.86227       -2.01453       -5.21700
S         -2.25867        0.68047       -3.38510
S         -1.63837        3.51817       -1.46230
S         -0.43257        6.52227       -0.17570
C         -0.62647        8.26197        2.15990
H         -0.96537        9.38767        4.08590
H          0.91563       11.06180        2.87440
H          1.23673        7.89227       -1.34290
H          0.45823        5.72817       -2.45530
H         -2.71267        4.14467        0.77990
H         -3.40357        1.97617       -0.42300
H         -0.47537        2.34397       -4.20630
H         -1.06657        0.20917       -5.47900
H         -4.24787       -1.17923       -2.58760
H         -5.40057       -3.41613       -3.32830
H         -4.10337       -4.11013       -5.70400
H         -1.31537        7.44527        2.35800
