 xtb: 6.5.0 (746241f)
          07202215453D

 37  0  0     0  0            999 V2000
   -0.0580   10.3005    3.4695 C   0  0  0  0  0  0  0  0  0  0  0  0
    0.8647   11.0095    2.7674 C   0  0  0  0  0  0  0  0  0  0  0  0
    1.2743   10.2524    1.2801 S   0  0  0  0  0  0  0  0  0  0  0  0
    0.1733    8.9414    1.6054 C   0  0  0  0  0  0  0  0  0  0  0  0
    0.0192    7.8703    0.6789 C   0  0  0  0  0  0  0  0  0  0  0  0
    0.6586    7.6848   -0.5239 C   0  0  0  0  0  0  0  0  0  0  0  0
    0.2717    6.5169   -1.1859 C   0  0  0  0  0  0  0  0  0  0  0  0
   -0.6727    5.7870   -0.5017 C   0  0  0  0  0  0  0  0  0  0  0  0
   -1.2818    4.5599   -0.8788 C   0  0  0  0  0  0  0  0  0  0  0  0
   -2.2460    3.8434   -0.2070 C   0  0  0  0  0  0  0  0  0  0  0  0
   -2.6253    2.6707   -0.8627 C   0  0  0  0  0  0  0  0  0  0  0  0
   -1.9581    2.4654   -2.0489 C   0  0  0  0  0  0  0  0  0  0  0  0
   -2.0932    1.3837   -2.9604 C   0  0  0  0  0  0  0  0  0  0  0  0
   -1.4134    1.1689   -4.1371 C   0  0  0  0  0  0  0  0  0  0  0  0
   -1.7937   -0.0048   -4.7926 C   0  0  0  0  0  0  0  0  0  0  0  0
   -2.7715   -0.7095   -4.1313 C   0  0  0  0  0  0  0  0  0  0  0  0
   -3.3881   -1.9357   -4.5128 C   0  0  0  0  0  0  0  0  0  0  0  0
   -4.3669   -2.6383   -3.8566 C   0  0  0  0  0  0  0  0  0  0  0  0
   -4.7453   -3.8154   -4.5268 C   0  0  0  0  0  0  0  0  0  0  0  0
   -4.0584   -4.0057   -5.6839 C   0  0  0  0  0  0  0  0  0  0  0  0
   -2.9279   -2.7470   -5.9849 S   0  0  0  0  0  0  0  0  0  0  0  0
   -3.2322    0.0993   -2.6591 S   0  0  0  0  0  0  0  0  0  0  0  0
   -0.8337    3.7597   -2.3605 S   0  0  0  0  0  0  0  0  0  0  0  0
   -1.0918    6.5677    0.9992 S   0  0  0  0  0  0  0  0  0  0  0  0
   -0.4549    9.1226    2.8116 C   0  0  0  0  0  0  0  0  0  0  0  0
   -0.4424   10.6084    4.4253 H   0  0  0  0  0  0  0  0  0  0  0  0
    1.3357   11.9358    3.0292 H   0  0  0  0  0  0  0  0  0  0  0  0
    1.3846    8.3816   -0.9043 H   0  0  0  0  0  0  0  0  0  0  0  0
    0.6628    6.2043   -2.1380 H   0  0  0  0  0  0  0  0  0  0  0  0
   -2.6568    4.1707    0.7317 H   0  0  0  0  0  0  0  0  0  0  0  0
   -3.3645    1.9829   -0.4917 H   0  0  0  0  0  0  0  0  0  0  0  0
   -0.6640    1.8490   -4.5019 H   0  0  0  0  0  0  0  0  0  0  0  0
   -1.3725   -0.3389   -5.7244 H   0  0  0  0  0  0  0  0  0  0  0  0
   -4.7920   -2.3089   -2.9252 H   0  0  0  0  0  0  0  0  0  0  0  0
   -5.4973   -4.4929   -4.1639 H   0  0  0  0  0  0  0  0  0  0  0  0
   -4.1432   -4.8107   -6.3862 H   0  0  0  0  0  0  0  0  0  0  0  0
   -1.1746    8.4249    3.2015 H   0  0  0  0  0  0  0  0  0  0  0  0
M  END
