 xtb: 6.5.1 (579679a)
          08172209593D

  4  3  0     0  0            999 V2000
   -0.2306    0.8131   -0.1693 N   0  0  0  0  0  0  0  0  0  0  0  0
    0.7815    0.8269   -0.1972 H   0  0  0  0  0  0  0  0  0  0  0  0
   -0.5533    0.3046   -0.9834 H   0  0  0  0  0  0  0  0  0  0  0  0
   -0.5533    1.7690   -0.2564 H   0  0  0  0  0  0  0  0  0  0  0  0
  1  2  1  0  0  0  0
  1  3  1  0  0  0  0
  1  4  1  0  0  0  0
M  END
