 xtb: 6.5.0 (746241f)
          07202214523D

 18  0  0     0  0            999 V2000
   -1.2378   -1.3920   -0.0048 C   0  0  0  0  0  0  0  0  0  0  0  0
   -0.0028   -0.7105   -0.0042 C   0  0  0  0  0  0  0  0  0  0  0  0
    1.2317   -1.3930   -0.0038 C   0  0  0  0  0  0  0  0  0  0  0  0
    2.4115   -0.7036   -0.0032 C   0  0  0  0  0  0  0  0  0  0  0  0
    2.4121    0.7003   -0.0029 C   0  0  0  0  0  0  0  0  0  0  0  0
    1.2329    1.3908   -0.0032 C   0  0  0  0  0  0  0  0  0  0  0  0
   -0.0022    0.7093   -0.0038 C   0  0  0  0  0  0  0  0  0  0  0  0
   -1.2366    1.3918   -0.0042 C   0  0  0  0  0  0  0  0  0  0  0  0
   -2.4164    0.7024   -0.0048 C   0  0  0  0  0  0  0  0  0  0  0  0
   -2.4170   -0.7015   -0.0051 C   0  0  0  0  0  0  0  0  0  0  0  0
   -1.2332   -2.4730   -0.0050 H   0  0  0  0  0  0  0  0  0  0  0  0
    1.2262   -2.4741   -0.0041 H   0  0  0  0  0  0  0  0  0  0  0  0
    3.3531   -1.2333   -0.0030 H   0  0  0  0  0  0  0  0  0  0  0  0
    3.3542    1.2292   -0.0024 H   0  0  0  0  0  0  0  0  0  0  0  0
    1.2283    2.4718   -0.0029 H   0  0  0  0  0  0  0  0  0  0  0  0
   -1.2311    2.4729   -0.0039 H   0  0  0  0  0  0  0  0  0  0  0  0
   -3.3581    1.2321   -0.0051 H   0  0  0  0  0  0  0  0  0  0  0  0
   -3.3591   -1.2304   -0.0056 H   0  0  0  0  0  0  0  0  0  0  0  0
M  CHG  1   1  -1
M  END
