 xtb: 6.5.0 (746241f)
          07142215233D

  8  0  0     0  0            999 V2000
   -0.8953    1.3841   -0.0003 C   0  0  0  0  0  0  0  0  0  0  0  0
    0.6255    1.4225    0.0001 C   0  0  0  0  0  0  0  0  0  0  0  0
    1.0226    0.8695   -0.8482 H   0  0  0  0  0  0  0  0  0  0  0  0
    0.9826    2.4480   -0.0632 H   0  0  0  0  0  0  0  0  0  0  0  0
    1.0195    0.9791    0.9118 H   0  0  0  0  0  0  0  0  0  0  0  0
   -1.2892    1.8276   -0.9121 H   0  0  0  0  0  0  0  0  0  0  0  0
   -1.2524    0.3586    0.0630 H   0  0  0  0  0  0  0  0  0  0  0  0
   -1.2924    1.9372    0.8480 H   0  0  0  0  0  0  0  0  0  0  0  0
M  END
