18

C         -1.21410       -1.39550       -0.00440
C         -0.00280       -0.70150       -0.00380
C          1.20790       -1.39650       -0.00380
C          2.41420       -0.69840       -0.00350
C          2.41480        0.69510       -0.00290
C          1.20910        1.39430       -0.00280
C         -0.00220        0.70030       -0.00350
C         -1.21290        1.39530       -0.00410
C         -2.41910        0.69720       -0.00510
C         -2.41970       -0.69630       -0.00510
H         -1.22400       -2.48300       -0.00450
H          1.21690       -2.48400       -0.00420
H          3.35590       -1.24180       -0.00370
H          3.35690        1.23780       -0.00260
H          1.21900        2.48180       -0.00240
H         -1.22180        2.48280       -0.00400
H         -3.36080        1.24060       -0.00580
H         -3.36190       -1.23890       -0.00580
